@<TRIPOS>MOLECULE
*****
 15 14 0 0 0
SMALL
GASTEIGER

@<TRIPOS>ATOM
      1 O           2.8353    0.2228   -0.5878 O.co2   1  UNL1       -0.2434
      2 C           1.9680    1.0058   -0.0908 C.2     1  UNL1        0.3862
      3 O           2.0144    2.2811   -0.0942 O.co2   1  UNL1       -0.2434
      4 C           0.7867    0.3896    0.7260 C.3     1  UNL1        0.1797
      5 O           0.9401   -1.0330    0.9886 O.3     1  UNL1       -0.3784
      6 C          -0.5870    0.6870    0.1018 C.3     1  UNL1        0.0967
      7 H          -1.2323    1.1234    0.8726 H       1  UNL1        0.0597
      8 H          -0.5231    1.4074   -0.7196 H       1  UNL1        0.0597
      9 O          -1.1824   -0.5189   -0.3850 O.3     1  UNL1       -0.2704
     10 P          -2.8242   -0.6012   -0.3493 P.3     1  UNL1        0.5949
     11 H           0.2060   -1.4155    0.4527 H       1  UNL1        0.2106
     12 H           0.8367    0.8804    1.7063 H       1  UNL1        0.0735
     13 O          -3.2928    0.6418   -1.0945 O.3     1  UNL1       -0.1035
     14 O          -3.1709   -0.6073    1.1344 O.2     1  UNL1       -0.2110
     15 O          -3.1384   -1.9121   -1.0601 O.2     1  UNL1       -0.2110
@<TRIPOS>BOND
     1     1     2   ar
     2     2     3   ar
     3     2     4    1
     4     4     5    1
     5     4     6    1
     6     6     7    1
     7     6     8    1
     8     6     9    1
     9     9    10    1
    10     5    11    1
    11    12     4    1
    12    13    10    1
    13    10    14    2
    14    15    10    2
