@<TRIPOS>MOLECULE
*****
 28 27 0 0 0
SMALL
GASTEIGER

@<TRIPOS>ATOM
      1 C           2.9891   -1.0922   -0.0103 C.3     1  UNL1        0.0833
      2 C           1.8768   -0.0259   -0.1050 C.3     1  UNL1        0.1072
      3 C           0.4854   -0.6830    0.0677 C.3     1  UNL1        0.1119
      4 C          -0.6993    0.3277   -0.0066 C.3     1  UNL1        0.1198
      5 C          -2.0297   -0.4358    0.0542 C.3     1  UNL1        0.1842
      6 C          -3.2894    0.3960   -0.3062 C.2     1  UNL1        0.3866
      7 O           4.2714   -0.5142    0.2159 O.3     1  UNL1       -0.3249
      8 O           1.9160    0.6194   -1.3856 O.3     1  UNL1       -0.3868
      9 O           0.4394   -1.4140    1.3152 O.3     1  UNL1       -0.3865
     10 O          -2.1967   -0.9890    1.4046 O.3     1  UNL1       -0.3782
     11 O          -4.1545    0.3998    0.6316 O.co2   1  UNL1       -0.2433
     12 H           3.0185   -1.7031   -0.9196 H       1  UNL1        0.0591
     13 H           2.8176   -1.7635    0.8359 H       1  UNL1        0.0591
     14 H           2.0407    0.7373    0.6642 H       1  UNL1        0.0643
     15 H           0.3531   -1.4171   -0.7375 H       1  UNL1        0.0647
     16 O          -0.6172    1.2023    1.1393 O.3     1  UNL1       -0.3860
     17 H          -2.0158   -1.2891   -0.6345 H       1  UNL1        0.0739
     18 O          -3.3606    0.8576   -1.4745 O.co2   1  UNL1       -0.2433
     19 P           5.1059   -0.0640   -1.0865 P.3     1  UNL1        0.2100
     20 H           2.8406    0.9629   -1.5197 H       1  UNL1        0.2100
     21 H          -0.5143   -1.5310    1.5225 H       1  UNL1        0.2100
     22 H          -3.1087   -0.6564    1.6227 H       1  UNL1        0.2106
     23 H          -0.6356    0.9378   -0.9127 H       1  UNL1        0.0652
     24 H          -0.9113    0.6481    1.8867 H       1  UNL1        0.2100
     25 O           6.4583    0.4208   -0.3611 O.3     1  UNL1       -0.3436
     26 O           4.4464    1.1130   -1.7424 O.3     1  UNL1       -0.4374
     27 H           7.0408   -0.3422   -0.5174 H       1  UNL1        0.2176
     28 O           5.5570   -1.2855   -1.8371 O.2     1  UNL1       -0.5173
@<TRIPOS>BOND
     1     1     2    1
     2     2     3    1
     3     3     4    1
     4     4     5    1
     5     5     6    1
     6     1     7    1
     7     2     8    1
     8     3     9    1
     9     5    10    1
    10     6    11   ar
    11     1    12    1
    12     1    13    1
    13     2    14    1
    14     3    15    1
    15     4    16    1
    16     5    17    1
    17     6    18   ar
    18     7    19    1
    19     8    20    1
    20     9    21    1
    21    10    22    1
    22     4    23    1
    23    16    24    1
    24    19    25    1
    25    19    26    1
    26    25    27    1
    27    28    19    2
