@<TRIPOS>MOLECULE
*****
 13 12 0 0 0
SMALL
GASTEIGER

@<TRIPOS>ATOM
      1 HA          0.4688    1.4335   -0.2740 H       1  ALA1        0.0195
      2 CA          0.3269    0.3981    0.0489 C.3     1  ALA1        0.0176
      3 N           1.7127   -0.2012    0.2114 N.4     1  ALA1        0.3869
      4 H1          2.4013    0.2750   -0.3729 H       1  ALA1       -0.0889
      5 H2          1.5670   -1.1281   -0.2683 H       1  ALA1       -0.0889
      6 CB         -0.3950    0.3129    1.3792 C.3     1  ALA1       -0.0683
      7 HB1        -1.3911    0.7631    1.3113 H       1  ALA1        0.0219
      8 HB2         0.1585    0.8423    2.1620 H       1  ALA1        0.0219
      9 HB3        -0.5257   -0.7271    1.6994 H       1  ALA1        0.0219
     10 C          -0.4461   -0.4289   -1.0181 C.2     1  ALA1        0.3418
     11 O           0.2477   -1.4526   -1.3351 O.co2   1  ALA1       -0.2483
     12 OXT        -1.5445    0.0133   -1.4119 O.co2   1  ALA1       -0.2483
     13 H3          2.0219   -0.3673    1.1670 H       1  ALA1       -0.0889
@<TRIPOS>BOND
     1     1     2    1
     2     2     3    1
     3     2     6    1
     4     2    10    1
     5     3     4    1
     6     3     5    1
     7     6     7    1
     8     6     8    1
     9     6     9    1
    10    10    11   ar
    11    10    12   ar
    12    13     3    1
