@<TRIPOS>MOLECULE
*****
 15 14 0 0 0
SMALL
GASTEIGER

@<TRIPOS>ATOM
      1 HA          0.2400   -1.4281   -0.1413 H       1  ASP1        0.0203
      2 CA          0.3263   -0.3385   -0.2123 C.3     1  ASP1        0.0307
      3 C           1.8060    0.1016   -0.0092 C.2     1  ASP1        0.3426
      4 O           2.4498   -0.4540    0.9134 O.co2   1  ASP1       -0.2482
      5 OXT         2.1802    0.9225   -0.9101 O.co2   1  ASP1       -0.2482
      6 CB         -0.5721    0.3570    0.8010 C.3     1  ASP1        0.0464
      7 CG         -2.0584    0.1563    0.5351 C.2     1  ASP1        0.3550
      8 HB1        -0.3432   -0.0191    1.8061 H       1  ASP1        0.0368
      9 N          -0.1336    0.0153   -1.6114 N.4     1  ASP1        0.3874
     10 H1          0.3334   -0.5679   -2.2985 H       1  ASP1       -0.0889
     11 H2          0.1710    0.9849   -1.7571 H       1  ASP1       -0.0889
     12 OD1        -2.3378   -0.2430   -0.6409 O.co2   1  ASP1       -0.2464
     13 OD2        -2.8327    0.4733    1.4717 O.co2   1  ASP1       -0.2464
     14 HB2        -0.3755    1.4365    0.8142 H       1  ASP1        0.0368
     15 H3         -1.1759   -0.0839   -1.6270 H       1  ASP1       -0.0889
@<TRIPOS>BOND
     1     1     2    1
     2     2     3    1
     3     2     6    1
     4     2     9    1
     5     3     4   ar
     6     3     5   ar
     7     6     8    1
     8     9    10    1
     9     9    11    1
    10     6     7    1
    11     7    12   ar
    12     7    13   ar
    13     6    14    1
    14    15     9    1
