@<TRIPOS>MOLECULE
*****
 25 24 0 0 0
SMALL
GASTEIGER

@<TRIPOS>ATOM
      1 C           0.9954   -0.7350   -1.9742 C.2     1  UNL1        0.3420
      2 CA          0.6083   -0.8058   -0.4655 C.3     1  UNL1        0.0206
      3 C           0.4141    0.6008    0.0953 C.3     1  UNL1       -0.0546
      4 H           1.3154    1.2024   -0.0781 H       1  UNL1        0.0255
      5 H          -0.3821    1.0999   -0.4695 H       1  UNL1        0.0255
      6 C           0.1215    0.5982    1.6013 C.3     1  UNL1       -0.0383
      7 H          -0.3753   -0.3252    1.9161 H       1  UNL1        0.0280
      8 H           1.0762    0.6045    2.1427 H       1  UNL1        0.0280
      9 C          -0.7116    1.7918    2.0664 C.3     1  UNL1        0.0130
     10 N          -1.9860    2.0059    1.3963 N.am    1  UNL1       -0.2996
     11 C          -2.8275    1.0306    0.9579 C.2     1  UNL1        0.2971
     12 H          -2.4481    2.8763    1.6212 H       1  UNL1        0.1502
     13 N          -0.6856   -1.5894   -0.3298 N.4     1  UNL1        0.3871
     14 O           2.0531   -0.1421   -2.2756 O.co2   1  UNL1       -0.2483
     15 OXT         0.1148   -1.3416   -2.6710 O.co2   1  UNL1       -0.2483
     16 HA          1.3693   -1.3664    0.0870 H       1  UNL1        0.0198
     17 H1         -0.9325   -1.7373   -1.3393 H       1  UNL1       -0.0889
     18 H2         -1.4720   -1.0741    0.1037 H       1  UNL1       -0.0889
     19 H3         -0.5641   -2.5137    0.0774 H       1  UNL1       -0.0889
     20 H          -0.1384    2.7169    1.9406 H       1  UNL1        0.0462
     21 H          -0.9310    1.6851    3.1346 H       1  UNL1        0.0462
     22 N          -4.0063    1.5338    0.5167 N.am    1  UNL1       -0.3134
     23 H          -4.6119    0.8566    0.0690 H       1  UNL1        0.1465
     24 H          -3.9844    2.4349    0.0591 H       1  UNL1        0.1465
     25 O          -2.5849   -0.1681    0.9015 O.2     1  UNL1       -0.2531
@<TRIPOS>BOND
     1     1     2    1
     2     2     3    1
     3     3     4    1
     4     3     5    1
     5     3     6    1
     6     6     7    1
     7     6     8    1
     8     6     9    1
     9     9    10    1
    10    10    11   am
    11    10    12    1
    12     2    13    1
    13     1    14   ar
    14     1    15   ar
    15     2    16    1
    16    13    17    1
    17    13    18    1
    18    19    13    1
    19    20     9    1
    20    21     9    1
    21    11    22   am
    22    22    23    1
    23    22    24    1
    24    25    11    2
