@<TRIPOS>MOLECULE
*****
 18 17 0 0 0
SMALL
GASTEIGER

@<TRIPOS>ATOM
      1 O           3.2311    0.2112   -0.5975 O.co2   1  UNL1       -0.2463
      2 C           2.2811    0.4999   -1.3880 C.2     1  UNL1        0.3593
      3 O           2.3912    1.0938   -2.5089 O.co2   1  UNL1       -0.2463
      4 C           0.9120   -0.1475   -1.1076 C.3     1  UNL1        0.0890
      5 H           0.3069   -0.0010   -2.0137 H       1  UNL1        0.0413
      6 H           1.1288   -1.2254   -1.0671 H       1  UNL1        0.0413
      7 C           0.0383    0.2070    0.1206 C.3     1  UNL1        0.1867
      8 O           0.7588   -0.1963    1.3175 O.3     1  UNL1       -0.3764
      9 C          -0.2256    1.7652    0.1744 C.2     1  UNL1        0.3880
     10 C          -1.2683   -0.6159    0.0542 C.3     1  UNL1        0.0890
     11 H          -1.7842   -0.3817   -0.8877 H       1  UNL1        0.0413
     12 H          -0.9949   -1.6792   -0.0175 H       1  UNL1        0.0413
     13 C          -2.3370   -0.5553    1.1598 C.2     1  UNL1        0.3593
     14 O          -3.3527    0.1707    0.9287 O.co2   1  UNL1       -0.2463
     15 O          -2.2200   -1.4017    2.1033 O.co2   1  UNL1       -0.2463
     16 O           0.2487    2.3274    1.2218 O.co2   1  UNL1       -0.2431
     17 O          -0.8367    2.3003   -0.7963 O.co2   1  UNL1       -0.2431
     18 H           0.9336    0.6805    1.7343 H       1  UNL1        0.2109
@<TRIPOS>BOND
     1     1     2   ar
     2     2     3   ar
     3     2     4    1
     4     4     5    1
     5     4     6    1
     6     4     7    1
     7     7     8    1
     8     7     9    1
     9     7    10    1
    10    10    11    1
    11    10    12    1
    12    10    13    1
    13    13    14   ar
    14    13    15   ar
    15     9    16   ar
    16     9    17   ar
    17     8    18    1
