@<TRIPOS>MOLECULE
*****
 77 79 0 0 0
SMALL
GASTEIGER

@<TRIPOS>ATOM
      1 O           2.7740   -1.1366    2.2624 O.3     1  A1         -0.4370
      2 P           1.6948   -1.4606    1.2570 P.3     1  A1          0.2234
      3 O           0.8572   -2.7551    1.6753 O.co2   1  A1         -0.2177
      4 O           2.0114   -1.4633   -0.2230 O.2     1  A1         -0.5169
      5 O           0.5298   -0.3159    1.4500 O.3     1  A1         -0.3245
      6 C          -0.1912   -0.3129    2.6738 C.3     1  A1          0.0837
      7 C          -0.5270    1.0918    3.2017 C.3     1  A1          0.1141
      8 O           0.7096    1.7635    3.5746 O.3     1  A1         -0.3456
      9 C          -1.2792    2.0310    2.2494 C.3     1  A1          0.1295
     10 O          -2.0155    2.9499    3.0697 O.3     1  A1         -0.2648
     11 C          -0.1340    2.7624    1.5578 C.3     1  A1          0.1294
     12 O          -0.4508    4.0073    0.9320 O.3     1  A1         -0.3846
     13 C           0.8266    2.9327    2.7373 C.3     1  A1          0.1667
     14 N           2.2280    3.1114    2.4046 N.ar    1  A1         -0.2855
     15 C           2.9719    2.3867    1.5033 C.ar    1  A1          0.1004
     16 N           4.2239    2.8083    1.4331 N.ar    1  A1         -0.2306
     17 C           4.3108    3.7693    2.4085 C.ar    1  A1          0.1473
     18 C           5.4101    4.4944    2.8984 C.ar    1  A1          0.1472
     19 N           6.7130    4.2985    2.4149 N.pl3   1  A1         -0.3413
     20 N           5.2277    5.3508    3.9295 N.ar    1  A1         -0.2188
     21 C           3.9688    5.4783    4.4111 C.ar    1  A1          0.1205
     22 N           2.8459    4.8495    4.0255 N.ar    1  A1         -0.2159
     23 C           3.0887    3.9876    3.0205 C.ar    1  A1          0.1674
     24 H           0.5280    3.8026    3.3361 H       1  A1          0.0866
     25 H           0.2895    2.1183    0.7818 H       1  A1          0.0666
     26 H          -1.9500    1.5088    1.5615 H       1  A1          0.0656
     27 H          -1.0942    0.9663    4.1322 H       1  A1          0.0647
     28 H          -1.1193   -0.8705    2.5100 H       1  A1          0.0591
     29 H           0.3892   -0.8382    3.4408 H       1  A1          0.0591
     30 H           3.8471    6.1807    5.2293 H       1  A1          0.1048
     31 H           2.5568    1.5561    0.9404 H       1  A1          0.1030
     32 H           7.3520    4.3626    3.1945 H       1  A1          0.1438
     33 H           6.7234    3.4096    1.9112 H       1  A1          0.1438
     34 H          -1.4516    4.1098    1.0013 H       1  A1          0.2101
     35 P          -3.4149    3.5416    2.4689 P.3     1  A1          0.5952
     36 O          -3.8778    4.5369    3.5204 O.3     1  UNL1       -0.1035
     37 O          -4.3027    2.3196    2.3144 O.2     1  UNL1       -0.2110
     38 O          -2.9637    4.1749    1.1598 O.2     1  UNL1       -0.2110
     39 P           1.2284   -4.2893    1.9049 P.3     1  UNL1        0.5732
     40 O          -0.2867   -4.7692    2.2662 O.3     1  UNL1       -0.2657
     41 O           2.0329   -4.5346    3.1600 O.2     1  UNL1       -0.2125
     42 O           1.5510   -5.0157    0.6180 O.2     1  UNL1       -0.2125
     43 C          -0.6114   -6.0698    2.7695 C.3     1  UNL1        0.1106
     44 C          -2.1018   -6.1881    2.3781 C.3     1  UNL1        0.1596
     45 C           0.2229   -7.1852    2.1284 C.3     1  UNL1       -0.0325
     46 H          -2.6755   -5.4004    2.8841 H       1  UNL1        0.0720
     47 C          -2.8073   -7.5209    2.6855 C.2     1  UNL1        0.2445
     48 O          -2.2720   -5.9346    0.9580 O.3     1  UNL1       -0.3797
     49 H           0.1330   -7.1761    1.0371 H       1  UNL1        0.0258
     50 H          -0.0764   -8.1760    2.4832 H       1  UNL1        0.0258
     51 H           1.2867   -7.0722    2.3625 H       1  UNL1        0.0258
     52 C          -0.4468   -6.0623    4.2924 C.3     1  UNL1       -0.0325
     53 H          -0.9576   -5.1998    4.7352 H       1  UNL1        0.0258
     54 H           0.6054   -5.9804    4.5801 H       1  UNL1        0.0258
     55 H          -0.8331   -6.9716    4.7598 H       1  UNL1        0.0258
     56 H          -1.5321   -5.3124    0.7497 H       1  UNL1        0.2106
     57 O          -2.4608   -8.3597    3.5125 O.2     1  UNL1       -0.2729
     58 N          -3.9792   -7.6445    1.9511 N.am    1  UNL1       -0.3126
     59 H          -4.0264   -6.9827    1.1735 H       1  UNL1        0.1488
     60 C          -4.7809   -8.8414    1.9646 C.3     1  UNL1        0.0199
     61 H          -4.7329   -9.3023    2.9578 H       1  UNL1        0.0467
     62 C          -4.3368   -9.8295    0.8968 C.3     1  UNL1        0.0395
     63 H          -5.8161   -8.5252    1.7991 H       1  UNL1        0.0467
     64 H          -3.2709  -10.0616    1.0048 H       1  UNL1        0.0374
     65 H          -4.4709   -9.4056   -0.1056 H       1  UNL1        0.0374
     66 C          -5.1168  -11.1197    0.9894 C.2     1  UNL1        0.2145
     67 O          -4.5901  -12.2046    1.2225 O.2     1  UNL1       -0.2758
     68 N          -6.4708  -10.9976    0.7542 N.am    1  UNL1       -0.3145
     69 H          -6.8471  -10.1051    0.4568 H       1  UNL1        0.1487
     70 C          -7.3455  -12.1523    0.8251 C.3     1  UNL1        0.0204
     71 H          -7.0774  -12.7201    1.7244 H       1  UNL1        0.0470
     72 C          -7.2460  -13.0330   -0.4207 C.3     1  UNL1        0.0063
     73 H          -8.3654  -11.7736    0.9535 H       1  UNL1        0.0470
     74 H          -6.2097  -13.3172   -0.6278 H       1  UNL1        0.0389
     75 H          -7.6174  -12.4886   -1.2952 H       1  UNL1        0.0389
     76 S          -8.2237  -14.5549   -0.2229 S.3     1  UNL1       -0.1767
     77 H          -7.4376  -15.0981    0.7206 H       1  UNL1        0.1017
@<TRIPOS>BOND
     1     1     2    1
     2     4     2    2
     3    33    19    1
     4     2     3    1
     5     2     5    1
     6    32    19    1
     7    19    18    1
     8    16    15   ar
     9    16    17   ar
    10    31    15    1
    11     5     6    1
    12    15    14   ar
    13    18    17   ar
    14    18    20   ar
    15    17    23   ar
    16    25    11    1
    17    28     6    1
    18     6    29    1
    19     6     7    1
    20    26     9    1
    21    14    23   ar
    22    14    13    1
    23    20    21   ar
    24    11    12    1
    25    11     9    1
    26    11    13    1
    27    23    22   ar
    28    12    34    1
    29     9     7    1
    30     9    10    1
    31     7     8    1
    32     7    27    1
    33    13     8    1
    34    13    24    1
    35    21    22   ar
    36    21    30    1
    37    10    35    1
    38    35    36    1
    39    35    37    2
    40    38    35    2
    41    39     3    1
    42    39    40    1
    43    39    41    2
    44    42    39    2
    45    43    40    1
    46    43    44    1
    47    43    45    1
    48    44    46    1
    49    44    47    1
    50    44    48    1
    51    45    49    1
    52    45    50    1
    53    45    51    1
    54    43    52    1
    55    52    53    1
    56    52    54    1
    57    52    55    1
    58    48    56    1
    59    57    47    2
    60    47    58   am
    61    58    59    1
    62    58    60    1
    63    60    61    1
    64    60    62    1
    65    60    63    1
    66    62    64    1
    67    62    65    1
    68    62    66    1
    69    66    67    2
    70    66    68   am
    71    68    69    1
    72    68    70    1
    73    70    71    1
    74    70    72    1
    75    70    73    1
    76    72    74    1
    77    72    75    1
    78    72    76    1
    79    76    77    1
