@<TRIPOS>MOLECULE
*****
 41 42 0 0 0
SMALL
GASTEIGER

@<TRIPOS>ATOM
      1 P          -2.5796    9.1547   -0.4141 P.3     1  C1          0.5836
      2 O          -1.0274    9.5926   -0.4091 O.3     1  C1         -0.2017
      3 P           0.3193    8.8328    0.0072 P.3     1  C1          0.3150
      4 O           1.4572    9.8059    0.2996 O.co2   1  C1         -0.8102
      5 O           0.6687    7.6365   -0.8598 O.2     1  C1         -0.2675
      6 O          -0.0455    8.1957    1.4522 O.3     1  C1         -0.3106
      7 C          -0.2208    9.0219    2.5761 C.3     1  C1          0.0851
      8 C           0.0848    8.1903    3.8302 C.3     1  C1          0.1133
      9 O          -0.9971    7.2810    4.1423 O.3     1  C1         -0.3456
     10 C           1.3356    7.3262    3.6788 C.3     1  C1          0.1135
     11 O           1.9900    7.1362    4.9633 O.3     1  C1         -0.3864
     12 C           0.8170    5.9716    3.2033 C.3     1  C1          0.1286
     13 O           1.6348    4.9126    3.7677 O.3     1  C1         -0.3847
     14 C          -0.6257    5.9441    3.7547 C.3     1  C1          0.1680
     15 N          -1.6724    5.3611    2.9160 N.ar    1  C1         -0.2700
     16 C          -2.7092    4.6526    3.5315 C.ar    1  C1          0.3522
     17 O          -2.6285    4.2792    4.7052 O.2     1  C1         -0.2444
     18 N          -3.8415    4.3383    2.7996 N.ar    1  C1         -0.1783
     19 C          -3.9114    4.7137    1.5570 C.ar    1  C1          0.1230
     20 N          -5.0922    4.5004    0.8851 N.pl3   1  C1         -0.3430
     21 C          -2.8171    5.3761    0.8445 C.ar    1  C1         -0.0056
     22 C          -1.7592    5.6874    1.5813 C.ar    1  C1          0.0152
     23 H          -0.6042    5.3793    4.6938 H       1  C1          0.0867
     24 H           0.8741    5.8792    2.1176 H       1  C1          0.0665
     25 H           2.0841    7.7645    3.0105 H       1  C1          0.0647
     26 H           0.1684    8.8693    4.6859 H       1  C1          0.0647
     27 H           0.4715    9.8683    2.5366 H       1  C1          0.0591
     28 H          -1.2403    9.4067    2.6115 H       1  C1          0.0591
     29 H          -2.9076    5.6968   -0.1870 H       1  C1          0.0666
     30 H          -0.9682    6.2480    1.1041 H       1  C1          0.0812
     31 H          -5.8599    4.5321    1.5425 H       1  C1          0.1437
     32 H          -5.2166    5.2114    0.1594 H       1  C1          0.1437
     33 H           1.5791    5.0668    4.7296 H       1  C1          0.2101
     34 H           2.8607    6.7742    4.7148 H       1  C1          0.2100
     35 O          -2.8272    7.9627   -1.3292 O.2     1  UNL1       -0.2120
     36 O          -2.9974    8.9106    1.0406 O.2     1  UNL1       -0.2120
     37 O          -3.3743   10.4672   -0.8803 O.3     1  UNL1       -0.1499
     38 P          -3.5194   11.5529   -2.0599 P.3     1  UNL1        0.6695
     39 O          -4.7653   12.3681   -1.6697 O.2     1  UNL1       -0.2004
     40 O          -3.7383   10.8176   -3.3796 O.2     1  UNL1       -0.2004
     41 O          -2.2676   12.4274   -2.0388 O.2     1  UNL1       -0.2004
@<TRIPOS>BOND
     1     2     1    1
     2     2     3    1
     3     5     3    2
     4    32    20    1
     5    29    21    1
     6     4     3    2
     7     3     6    1
     8    20    31    1
     9    20    19    1
    10    21    19   ar
    11    21    22   ar
    12    30    22    1
    13    19    18   ar
    14     6     7    1
    15    22    15   ar
    16    24    12    1
    17    27     7    1
    18     7    28    1
    19     7     8    1
    20    18    16   ar
    21    25    10    1
    22    15    16   ar
    23    15    14    1
    24    12    13    1
    25    12    10    1
    26    12    14    1
    27    13    33    1
    28    16    17    2
    29    10     8    1
    30    10    11    1
    31     8     9    1
    32     8    26    1
    33    14     9    1
    34    14    23    1
    35    11    34    1
    36     1    35    2
    37     1    36    2
    38    37     1    1
    39    37    38    1
    40    38    39    2
    41    38    40    2
    42    41    38    2
