@<TRIPOS>MOLECULE
*****
 42 43 0 0 0
SMALL
GASTEIGER

@<TRIPOS>ATOM
      1 P           4.3958    0.6273   -1.0518 P.3     1  DT1         0.5826
      2 O           3.4465    1.7216   -0.3647 O.3     1  DT1        -0.2174
      3 P           2.7122    1.6312    1.0508 P.3     1  DT1         0.2234
      4 O           2.2655    3.0105    1.4856 O.co2   1  DT1        -0.4370
      5 O           3.4960    0.7658    2.0164 O.2     1  DT1        -0.5169
      6 O           1.3559    0.8434    0.6327 O.3     1  DT1        -0.3245
      7 C           0.5685    1.4273   -0.3884 C.3     1  DT1         0.0836
      8 C          -0.9072    1.5207    0.0074 C.3     1  DT1         0.1107
      9 O          -1.5155    0.2039   -0.0164 O.3     1  DT1        -0.3483
     10 C          -1.1849    2.0792    1.4045 C.3     1  DT1         0.0877
     11 O          -2.4984    2.6820    1.4492 O.3     1  DT1        -0.3890
     12 C          -1.2159    0.8461    2.2802 C.3     1  DT1         0.0214
     13 C          -1.8243   -0.1845    1.3345 C.3     1  DT1         0.1422
     14 N          -1.4492   -1.5793    1.5381 N.ar    1  DT1        -0.2737
     15 C          -2.4511   -2.5364    1.5483 C.ar    1  DT1         0.3313
     16 O          -3.6596   -2.3031    1.4963 O.2     1  DT1        -0.2464
     17 N          -2.0298   -3.8368    1.6507 N.ar    1  DT1        -0.2747
     18 C          -0.7397   -4.2638    1.7971 C.ar    1  DT1         0.2568
     19 O          -0.4762   -5.4469    1.9818 O.2     1  DT1        -0.2674
     20 C           0.2936   -3.2109    1.7285 C.ar    1  DT1         0.0302
     21 C           1.7313   -3.6091    1.7927 C.3     1  DT1        -0.0332
     22 C          -0.1156   -1.9452    1.5879 C.ar    1  DT1         0.0199
     23 H           0.9301    2.4312   -0.6354 H       1  DT1         0.0591
     24 H           0.6761    0.8012   -1.2803 H       1  DT1         0.0591
     25 H          -1.4273    2.1063   -0.7596 H       1  DT1         0.0646
     26 H          -2.9148   -0.0962    1.4139 H       1  DT1         0.0840
     27 H          -0.2063    0.5815    2.6036 H       1  DT1         0.0335
     28 H          -1.8284    0.9612    3.1809 H       1  DT1         0.0335
     29 H          -0.4718    2.8370    1.7354 H       1  DT1         0.0621
     30 H           0.6232   -1.1539    1.5096 H       1  DT1         0.0816
     31 H           1.9823   -3.9537    2.8012 H       1  DT1         0.0280
     32 H           2.3967   -2.7738    1.5480 H       1  DT1         0.0280
     33 H           1.9435   -4.4170    1.0857 H       1  DT1         0.0280
     34 H          -2.7466   -4.5401    1.6777 H       1  DT1         0.1734
     35 H          -3.0547    2.2180    0.7992 H       1  DT1         0.2099
     36 O           4.8020    1.1661   -2.4098 O.2     1  UNL1       -0.2121
     37 O           3.7788   -0.7444   -0.9618 O.2     1  UNL1       -0.2121
     38 O           5.6638    0.7411   -0.0883 O.3     1  UNL1       -0.1500
     39 P           6.3275   -0.3896    0.7809 P.3     1  UNL1        0.6695
     40 O           7.4400    0.4468    1.6045 O.2     1  UNL1       -0.2004
     41 O           7.0340   -1.5235    0.1017 O.2     1  UNL1       -0.2004
     42 O           5.3640   -0.7940    1.9865 O.2     1  UNL1       -0.2004
@<TRIPOS>BOND
     1     2     1    1
     2     2     3    1
     3    33    21    1
     4    31    21    1
     5    21    32    1
     6    21    20    1
     7    19    18    2
     8     5     3    2
     9    20    18   ar
    10    20    22   ar
    11    18    17   ar
    12     3     4    1
    13     3     6    1
    14    30    22    1
    15    22    14   ar
    16    17    34    1
    17    17    15   ar
    18     6     7    1
    19    14    15   ar
    20    14    13    1
    21    27    12    1
    22    15    16    2
    23    24     7    1
    24     7    23    1
    25     7     8    1
    26    12    13    1
    27    12    28    1
    28    12    10    1
    29    13     9    1
    30    13    26    1
    31     9     8    1
    32    29    10    1
    33     8    10    1
    34     8    25    1
    35    10    11    1
    36    11    35    1
    37     1    36    2
    38     1    37    2
    39    38     1    1
    40    38    39    1
    41    39    40    2
    42    41    39    2
    43    39    42    2
