@<TRIPOS>MOLECULE
*****
 30 30 0 0 0
SMALL
GASTEIGER

@<TRIPOS>ATOM
      1 H           0.1379    0.4465    2.0520 H       1  UNL1        0.0675
      2 C          -0.4067    0.6203    1.1182 C.3     1  UNL1        0.1392
      3 O          -1.2396    1.7952    1.2745 O.3     1  UNL1       -0.3837
      4 C           0.5036    0.7854   -0.1132 C.3     1  UNL1        0.2213
      5 O          -0.2961    1.4405   -1.1515 O.3     1  UNL1       -0.3608
      6 C           1.7615    1.6535    0.0857 C.3     1  UNL1        0.1146
      7 O           0.7991   -0.5381   -0.5933 O.3     1  UNL1       -0.3364
      8 C          -0.0734   -1.4781    0.1231 C.3     1  UNL1        0.1142
      9 C          -0.5196   -2.5409   -0.8860 C.3     1  UNL1        0.0870
     10 H           0.5247   -1.9452    0.9148 H       1  UNL1        0.0647
     11 C          -1.1941   -0.6328    0.7374 C.3     1  UNL1        0.1145
     12 H          -1.9617   -0.3883   -0.0071 H       1  UNL1        0.0648
     13 O          -1.8658   -1.1805    1.8681 O.3     1  UNL1       -0.3864
     14 H          -1.0479    1.7963   -0.6356 H       1  UNL1        0.2129
     15 H          -0.6398    2.3798    1.7945 H       1  UNL1        0.2101
     16 H          -1.6519   -2.1648    1.8953 H       1  UNL1        0.2100
     17 H           0.3378   -3.1656   -1.1624 H       1  UNL1        0.0592
     18 H          -0.8003   -2.0359   -1.8182 H       1  UNL1        0.0592
     19 O          -1.6238   -3.3484   -0.5307 O.3     1  UNL1       -0.2908
     20 H           1.8642    2.3511   -0.7552 H       1  UNL1        0.0620
     21 H           2.6745    1.0512    0.0804 H       1  UNL1        0.0620
     22 O           1.6554    2.4706    1.2453 O.3     1  UNL1       -0.2880
     23 P           2.6884    2.1285    2.4735 P.3     1  UNL1        0.4678
     24 P          -1.4043   -4.5030    0.6067 P.3     1  UNL1        0.4677
     25 O          -2.6537   -5.3670    0.4931 O.3     1  UNL1       -0.1254
     26 O          -1.3241   -3.6850    1.8845 O.3     1  UNL1       -0.1254
     27 O           3.9292    2.9468    2.1324 O.3     1  UNL1       -0.1254
     28 O           2.8820    0.6333    2.4147 O.3     1  UNL1       -0.1254
     29 O           1.9247    2.6334    3.6938 O.3     1  UNL1       -0.1254
     30 O          -0.1236   -5.2154    0.2028 O.3     1  UNL1       -0.1254
@<TRIPOS>BOND
     1     1     2    1
     2     2     3    1
     3     2     4    1
     4     2    11    1
     5     4     5    1
     6     4     6    1
     7     4     7    1
     8     7     8    1
     9     8     9    1
    10     8    10    1
    11     8    11    1
    12    11    12    1
    13    11    13    1
    14     5    14    1
    15     3    15    1
    16    13    16    1
    17     9    17    1
    18     9    18    1
    19     9    19    1
    20     6    20    1
    21     6    21    1
    22     6    22    1
    23    22    23    1
    24    19    24    1
    25    24    25    1
    26    24    26    1
    27    23    27    1
    28    23    28    1
    29    29    23    1
    30    30    24    1
