@<TRIPOS>MOLECULE
*****
 20 19 0 0 0
SMALL
GASTEIGER

@<TRIPOS>ATOM
      1 C           1.4280   -0.4289   -1.9848 C.2     1  GLN1        0.3420
      2 CA          0.9906   -0.7428   -0.5203 C.3     1  GLN1        0.0209
      3 CB         -0.0016    0.2779    0.0250 C.3     1  GLN1       -0.0477
      4 HB1         0.4877    1.2600    0.0631 H       1  GLN1        0.0259
      5 HB2        -0.8398    0.3863   -0.6758 H       1  GLN1        0.0259
      6 CG         -0.5376   -0.0724    1.4101 C.3     1  GLN1        0.0227
      7 HG1        -1.2863   -0.8699    1.3457 H       1  GLN1        0.0358
      8 HG2         0.2870   -0.4373    2.0349 H       1  GLN1        0.0358
      9 CD         -1.1645    1.0893    2.1523 C.2     1  GLN1        0.2104
     10 OE1        -1.0645    1.2109    3.3687 O.2     1  GLN1       -0.2760
     11 NE2        -1.9436    1.9396    1.4313 N.am    1  GLN1       -0.3293
     12 HE21       -2.3098    2.7387    1.9363 H       1  GLN1        0.1449
     13 HE22       -1.8680    2.0403    0.4281 H       1  GLN1        0.1449
     14 N           0.3916   -2.1379   -0.5008 N.4     1  GLN1        0.3871
     15 O           1.6079    0.7645   -2.2994 O.co2   1  GLN1       -0.2483
     16 OXT         1.4531   -1.5190   -2.6483 O.co2   1  GLN1       -0.2483
     17 HA          1.8913   -0.7989    0.1009 H       1  GLN1        0.0198
     18 H1          0.8276   -2.5310   -1.3764 H       1  GLN1       -0.0889
     19 H2         -0.6081   -2.1482   -0.7113 H       1  GLN1       -0.0889
     20 H3          0.6607   -2.7222    0.2893 H       1  GLN1       -0.0889
@<TRIPOS>BOND
     1     1     2    1
     2     2     3    1
     3     3     4    1
     4     3     5    1
     5     3     6    1
     6     6     7    1
     7     6     8    1
     8     6     9    1
     9     9    10    2
    10     9    11   am
    11    11    12    1
    12    11    13    1
    13     2    14    1
    14     1    15   ar
    15     1    16   ar
    16     2    17    1
    17    14    18    1
    18    14    19    1
    19    20    14    1
