@<TRIPOS>MOLECULE
*****
 68 67 0 0 0
SMALL
GASTEIGER

@<TRIPOS>ATOM
      1 C           1.6410    0.3218    0.0640 C.3     1  GLN1        0.0257
      2 C           1.9872    0.2902    1.5394 C.2     1  GLN1        0.2137
      3 O           1.1546    0.5718    2.3933 O.2     1  GLN1       -0.2758
      4 C           2.0817    1.5918   -0.6636 C.3     1  GLN1       -0.0242
      5 C           3.4171    1.4332   -1.3920 C.3     1  GLN1        0.0453
      6 C           3.7593    2.6039   -2.4022 C.2     1  GLN1        0.0585
      7 O           2.7803    3.1433   -2.9913 O.co2   1  GLN1       -0.5482
      8 O           5.0009    2.8377   -2.5377 O.co2   1  GLN1       -0.5482
      9 H           2.0262   -0.5831   -0.4200 H       1  GLN1        0.0359
     10 H           2.1179    2.4453    0.0255 H       1  GLN1        0.0288
     11 H           1.3071    1.8314   -1.4029 H       1  GLN1        0.0288
     12 H           3.3916    0.5228   -2.0038 H       1  GLN1        0.0520
     13 N           4.5303    1.2766   -0.4053 N.3     1  GLN1       -0.3226
     14 N           3.2578   -0.1336    1.8332 N.am    2  CYS2       -0.3032
     15 CA          3.7320   -0.2720    3.2235 C.3     2  CYS2        0.1091
     16 C           5.2611   -0.4802    3.1983 C.2     2  CYS2        0.2345
     17 O           5.8513   -0.9051    2.2026 O.2     2  CYS2       -0.2737
     18 HA          3.5301    0.6844    3.7213 H       2  CYS2        0.0603
     19 CB          3.0706   -1.4702    3.9477 C.3     2  CYS2        0.0309
     20 HB1         2.4080   -2.0054    3.2584 H       2  CYS2        0.0407
     21 SG          2.0880   -0.9365    5.4083 S.3     2  CYS2       -0.0907
     22 HB2         3.8142   -2.1902    4.3060 H       2  CYS2        0.0407
     23 H           3.9668    0.0181    1.1053 H       2  CYS2        0.1495
     24 N           5.9116   -0.2039    4.3770 N.am    3  GLY3       -0.3085
     25 C           7.3719   -0.2737    4.5077 C.3     3  GLY3        0.0512
     26 C           7.9365    0.2072    5.8669 C.2     3  GLY3        0.0588
     27 O           7.0887    0.7426    6.6416 O.co2   3  GLY3       -0.5482
     28 H           7.6709   -1.3118    4.3283 H       3  GLY3        0.0523
     29 H           7.8033    0.3483    3.7153 H       3  GLY3        0.0523
     30 H           5.4473    0.2119    5.1839 H       3  GLY3        0.1491
     31 O           9.1795    0.0286    6.0317 O.co2   3  GLY3       -0.5482
     32 H           0.5467    0.2475    0.0081 H       1  UNK1        0.0359
     33 H           4.5742    2.1595    0.1137 H       1  UNK1        0.1188
     34 H           5.3782    1.3633   -0.9896 H       1  UNK1        0.1188
     35 C           2.9872   -5.0966   10.4229 C.3     1  UNK1        0.0257
     36 C           2.6336   -4.2466    9.2155 C.2     1  UNK1        0.2137
     37 O           3.4028   -4.1483    8.2628 O.2     1  UNK1       -0.2758
     38 C           3.4060   -4.3027   11.6625 C.3     1  UNK1       -0.0242
     39 C           2.2638   -4.0987   12.6595 C.3     1  UNK1        0.0453
     40 C           2.7112   -3.6060   14.0966 C.2     1  UNK1        0.0585
     41 O           3.8170   -4.0469   14.5202 O.co2   1  UNK1       -0.5482
     42 O           1.8666   -2.8625   14.6865 O.co2   1  UNK1       -0.5482
     43 H           2.1595   -5.7831   10.6369 H       1  UNK1        0.0359
     44 H           3.8449   -3.3379   11.3776 H       1  UNK1        0.0288
     45 H           4.2072   -4.8650   12.1581 H       1  UNK1        0.0288
     46 H           1.7585   -5.0568   12.8342 H       1  UNK1        0.0520
     47 N           1.2498   -3.1565   12.0935 N.3     1  UNK1       -0.3226
     48 N           1.3818   -3.6913    9.2441 N.am    1  UNK1       -0.3032
     49 C           0.8630   -2.7609    8.2132 C.3     1  UNK1        0.1091
     50 C          -0.5749   -2.3738    8.6584 C.2     1  UNK1        0.2345
     51 O          -1.1938   -3.0292    9.5026 O.2     1  UNK1       -0.2737
     52 H           1.5047   -1.8750    8.2542 H       1  UNK1        0.0603
     53 C           0.8403   -3.3926    6.8069 C.3     1  UNK1        0.0309
     54 H           1.7722   -3.9063    6.5607 H       1  UNK1        0.0407
     55 S           0.4920   -2.2423    5.4180 S.3     1  UNK1       -0.0907
     56 H           0.0575   -4.1607    6.7728 H       1  UNK1        0.0407
     57 H           0.9630   -3.5934   10.1793 H       1  UNK1        0.1495
     58 N          -1.1313   -1.2760    8.0493 N.am    2  GLY2       -0.3085
     59 CA         -2.4800   -0.7928    8.3728 C.3     2  GLY2        0.0512
     60 C          -3.0748    0.2666    7.4147 C.2     2  GLY2        0.0588
     61 O          -2.3125    0.6471    6.4808 O.co2   2  GLY2       -0.5482
     62 HA1        -3.1518   -1.6573    8.4038 H       2  GLY2        0.0523
     63 HA2        -2.4297   -0.3632    9.3792 H       2  GLY2        0.0523
     64 H          -0.6947   -0.8073    7.2536 H       2  GLY2        0.1491
     65 OXT        -4.2615    0.6265    7.6788 O.co2   2  GLY2       -0.5482
     66 H           3.8297   -5.7302   10.1151 H       1  UNK1        0.0359
     67 H           1.7232   -2.2498   12.0128 H       1  UNK1        0.1188
     68 H           0.6295   -2.9643   12.8978 H       1  UNK1        0.1188
@<TRIPOS>BOND
     1     1     2    1
     2     2     3    2
     3     2    14   am
     4    14    15    1
     5    15    16    1
     6    16    17    2
     7    16    24   am
     8    24    25    1
     9    25    26    1
    10    26    27   ar
    11    31    26   ar
    12     1     4    1
    13     1     9    1
    14     4     5    1
    15     5     6    1
    16     6     7   ar
    17     6     8   ar
    18    14    23    1
    19    15    18    1
    20    15    19    1
    21    19    21    1
    22    24    30    1
    23    11     4    1
    24    12     5    1
    25     5    13    1
    26     4    10    1
    27    22    19    1
    28    20    19    1
    29    29    25    1
    30    28    25    1
    31    32     1    1
    32    13    33    1
    33    13    34    1
    34    35    36    1
    35    35    38    1
    36    35    43    1
    37    36    37    2
    38    36    48   am
    39    38    39    1
    40    38    44    1
    41    39    40    1
    42    39    46    1
    43    39    47    1
    44    40    41   ar
    45    40    42   ar
    46    45    38    1
    47    47    67    1
    48    47    68    1
    49    48    49    1
    50    48    57    1
    51    49    50    1
    52    49    52    1
    53    49    53    1
    54    50    51    2
    55    50    58   am
    56    53    55    1
    57    54    53    1
    58    56    53    1
    59    58    59    1
    60    58    64    1
    61    59    60    1
    62    60    61   ar
    63    62    59    1
    64    63    59    1
    65    65    60   ar
    66    66    35    1
    67    55    21    1
