@<TRIPOS>MOLECULE
*****
 18 17 0 0 0
SMALL
GASTEIGER

@<TRIPOS>ATOM
      1 C           2.1025   -0.6321   -1.2450 C.2     1  GLU1        0.3420
      2 CA          0.7594   -0.7867   -0.4628 C.3     1  GLU1        0.0210
      3 N          -0.2919   -1.3117   -1.4359 N.4     1  GLU1        0.3871
      4 CB          0.1885    0.4414    0.2288 C.3     1  GLU1       -0.0458
      5 HB1         0.9403    0.8797    0.8961 H       1  GLU1        0.0259
      6 HB2        -0.0352    1.2110   -0.5209 H       1  GLU1        0.0259
      7 CG         -1.0650    0.0962    1.0389 C.3     1  GLU1        0.0482
      8 HG1        -1.7719   -0.4794    0.4296 H       1  GLU1        0.0378
      9 HG2        -0.7809   -0.5405    1.8859 H       1  GLU1        0.0378
     10 CD         -1.8737    1.2763    1.5715 C.2     1  GLU1        0.3560
     11 OE1        -1.5390    2.4134    1.1510 O.co2   1  GLU1       -0.2464
     12 OE2        -2.8274    0.9342    2.3258 O.co2   1  GLU1       -0.2464
     13 O           3.0686   -0.0767   -0.6796 O.co2   1  GLU1       -0.2483
     14 OXT         1.9897   -1.1851   -2.3940 O.co2   1  GLU1       -0.2483
     15 HA          0.9126   -1.6001    0.2567 H       1  GLU1        0.0198
     16 H1          0.3136   -1.6941   -2.1987 H       1  GLU1       -0.0889
     17 H2         -0.8062   -0.5311   -1.8502 H       1  GLU1       -0.0889
     18 H3         -0.9016   -2.0197   -1.0347 H       1  GLU1       -0.0889
@<TRIPOS>BOND
     1     1     2    1
     2     2     3    1
     3     2     4    1
     4     4     5    1
     5     4     6    1
     6     4     7    1
     7     7     8    1
     8     7     9    1
     9     7    10    1
    10    10    11   ar
    11    10    12   ar
    12     1    13   ar
    13     1    14   ar
    14     2    15    1
    15     3    16    1
    16     3    17    1
    17    18     3    1
