@<TRIPOS>MOLECULE
*****
 12 11 0 0 0
SMALL
GASTEIGER

@<TRIPOS>ATOM
      1 C           0.7176    0.7645   -0.3337 C.2     1  UNL1        0.3862
      2 O           0.0136    1.7256   -0.7583 O.co2   1  UNL1       -0.2434
      3 O           1.9076    0.7449    0.1079 O.co2   1  UNL1       -0.2434
      4 C           0.0395   -0.6342   -0.3470 C.3     1  UNL1        0.1788
      5 H           0.0211   -1.0011   -1.3785 H       1  UNL1        0.0735
      6 O           0.8227   -1.5548    0.4500 O.3     1  UNL1       -0.3785
      7 H           1.6580   -1.0410    0.5846 H       1  UNL1        0.2106
      8 C          -1.3624   -0.4864    0.2250 C.3     1  UNL1        0.0807
      9 H          -1.3641    0.1100    1.1449 H       1  UNL1        0.0588
     10 H          -1.7778   -1.4662    0.4822 H       1  UNL1        0.0588
     11 O          -2.2463    0.1359   -0.7113 O.3     1  UNL1       -0.3919
     12 H          -1.7658    0.9626   -0.9642 H       1  UNL1        0.2095
@<TRIPOS>BOND
     1     1     2   ar
     2     1     3   ar
     3     1     4    1
     4     4     5    1
     5     4     6    1
     6     4     8    1
     7     6     7    1
     8     8     9    1
     9     8    10    1
    10     8    11    1
    11    11    12    1
