@<TRIPOS>MOLECULE
*****
 44 46 0 0 0
SMALL
GASTEIGER

@<TRIPOS>ATOM
      1 P          -3.0668    8.8211   -0.2195 P.3     1  G1          0.5826
      2 O          -1.6588    9.5889   -0.1070 O.3     1  G1         -0.2174
      3 P          -0.1598    9.0770    0.1074 P.3     1  G1          0.2234
      4 O           0.7317   10.2513    0.4946 O.co2   1  G1         -0.4370
      5 O           0.3513    8.1493   -0.9710 O.2     1  G1         -0.5169
      6 O          -0.2929    8.1870    1.4609 O.3     1  G1         -0.3245
      7 C          -0.6665    8.8619    2.6457 C.3     1  G1          0.0836
      8 C          -0.2414    8.0278    3.8539 C.3     1  G1          0.1133
      9 O          -1.1829    6.9577    4.0794 O.3     1  G1         -0.3456
     10 C           1.1252    7.3702    3.6711 C.3     1  G1          0.1135
     11 O           1.7664    7.1449    4.9536 O.3     1  G1         -0.3864
     12 C           0.8013    6.0145    3.0556 C.3     1  G1          0.1285
     13 O           1.7746    5.0345    3.4859 O.3     1  G1         -0.3847
     14 C          -0.5997    5.7259    3.6189 C.3     1  G1          0.1667
     15 N          -1.5368    4.9851    2.7939 N.ar    1  G1         -0.2854
     16 C          -1.4283    4.6474    1.4654 C.ar    1  G1          0.1005
     17 N          -2.2981    3.7143    1.1117 N.ar    1  G1         -0.2286
     18 C          -3.1308    3.6238    2.1894 C.ar    1  G1          0.1721
     19 C          -4.3834    2.9236    2.3513 C.ar    1  G1          0.2803
     20 O          -4.8755    2.1005    1.5798 O.2     1  G1         -0.2654
     21 N          -4.9951    3.2207    3.5622 N.ar    1  G1         -0.2934
     22 C          -4.3950    3.9368    4.5743 C.ar    1  G1          0.1950
     23 N          -5.1265    4.0997    5.7110 N.pl3   1  G1         -0.3289
     24 N          -3.2043    4.4592    4.5010 N.ar    1  G1         -0.1963
     25 C          -2.6550    4.3417    3.2645 C.ar    1  G1          0.1712
     26 H          -0.4787    5.1034    4.5164 H       1  G1          0.0866
     27 H           0.8342    6.0605    1.9663 H       1  G1          0.0665
     28 H           1.8186    7.9696    3.0719 H       1  G1          0.0647
     29 H          -0.2701    8.6567    4.7505 H       1  G1          0.0647
     30 H          -0.1571    9.8290    2.7020 H       1  G1          0.0591
     31 H          -1.7450    9.0355    2.6524 H       1  G1          0.0591
     32 H          -5.8818    2.7785    3.7133 H       1  G1          0.1716
     33 H          -0.7090    5.1038    0.7947 H       1  G1          0.1030
     34 H          -6.0627    4.4268    5.5013 H       1  G1          0.1451
     35 H          -4.6510    4.8041    6.2728 H       1  G1          0.1451
     36 H           1.7913    5.1255    4.4576 H       1  G1          0.2101
     37 H           2.7111    7.0548    4.7282 H       1  G1          0.2100
     38 O          -4.0553   10.0359    0.1415 O.3     1  UNL1       -0.1500
     39 O          -3.1916    7.8422    0.9378 O.2     1  UNL1       -0.2121
     40 P          -4.9069   11.0712   -0.7097 P.3     1  UNL1        0.6695
     41 O          -3.3188    8.3388   -1.6286 O.2     1  UNL1       -0.2121
     42 O          -4.0768   11.9950   -1.5692 O.2     1  UNL1       -0.2004
     43 O          -5.1886   12.1172    0.5102 O.2     1  UNL1       -0.2004
     44 O          -6.2857   10.6115   -1.1175 O.2     1  UNL1       -0.2004
@<TRIPOS>BOND
     1     2     1    1
     2     2     3    1
     3     5     3    2
     4     3     4    1
     5     3     6    1
     6    20    19    2
     7    17    16   ar
     8    17    18   ar
     9    33    16    1
    10     6     7    1
    11    16    15   ar
    12    19    18   ar
    13    19    21   ar
    14    18    25   ar
    15    27    12    1
    16    30     7    1
    17     7    31    1
    18     7     8    1
    19    28    10    1
    20    15    25   ar
    21    15    14    1
    22    21    32    1
    23    21    22   ar
    24    12    13    1
    25    12    10    1
    26    12    14    1
    27    25    24   ar
    28    13    36    1
    29    10     8    1
    30    10    11    1
    31     8     9    1
    32     8    29    1
    33    14     9    1
    34    14    26    1
    35    22    24   ar
    36    22    23    1
    37    34    23    1
    38    23    35    1
    39    11    37    1
    40     1    38    1
    41     1    39    2
    42    38    40    1
    43    41     1    2
    44    42    40    2
    45    43    40    2
    46    44    40    2
