@<TRIPOS>MOLECULE
*****
 27 27 0 0 0
SMALL
GASTEIGER

@<TRIPOS>ATOM
      1 C           0.7965    1.1674   -0.7988 C.3     1  UNL1        0.1854
      2 O          -0.3667    0.9623   -0.0129 O.3     1  UNL1       -0.3407
      3 C          -0.6731   -0.4354    0.1759 C.3     1  UNL1        0.1139
      4 C           0.5002   -1.1585    0.8585 C.3     1  UNL1        0.1119
      5 O           0.2393   -2.5579    0.9726 O.3     1  UNL1       -0.3865
      6 C           1.7789   -0.9589    0.0388 C.3     1  UNL1        0.1141
      7 C           2.0454    0.5269   -0.1800 C.3     1  UNL1        0.1339
      8 O           3.1894    0.6774   -1.0311 O.3     1  UNL1       -0.3841
      9 O           2.8796   -1.5681    0.7285 O.3     1  UNL1       -0.3864
     10 C          -1.9555   -0.5246    1.0171 C.3     1  UNL1        0.0901
     11 O          -3.1114   -0.2798    0.2223 O.3     1  UNL1       -0.2607
     12 O           0.9752    2.5705   -0.9077 O.3     1  UNL1       -0.3649
     13 H          -0.8741   -0.8802   -0.8076 H       1  UNL1        0.0647
     14 H           0.6533   -0.7710    1.8735 H       1  UNL1        0.0647
     15 H           1.7018   -1.4850   -0.9213 H       1  UNL1        0.0648
     16 H           2.3000    1.0086    0.7718 H       1  UNL1        0.0671
     17 H           0.6280    0.7936   -1.8151 H       1  UNL1        0.0935
     18 H           0.9424    2.9106    0.0047 H       1  UNL1        0.2126
     19 H           3.1888    1.6085   -1.3315 H       1  UNL1        0.2101
     20 H           3.6766   -1.3008    0.2259 H       1  UNL1        0.2100
     21 H          -1.9373    0.1915    1.8467 H       1  UNL1        0.0593
     22 H          -2.0802   -1.5259    1.4396 H       1  UNL1        0.0593
     23 P          -3.4177    1.2020   -0.2886 P.3     1  UNL1        0.6601
     24 O          -4.8813    1.0991   -0.9152 O.2     1  UNL1       -0.2007
     25 O          -2.5075    1.4145   -1.5807 O.2     1  UNL1       -0.2007
     26 O          -3.2978    2.2941    0.7185 O.2     1  UNL1       -0.2007
     27 H           0.0986   -2.9337    0.0895 H       1  UNL1        0.2100
@<TRIPOS>BOND
     1    17     1    1
     2    19     8    1
     3     8     7    1
     4    15     6    1
     5    13     3    1
     6     1    12    1
     7     1     7    1
     8     1     2    1
     9    12    18    1
    10     7     6    1
    11     7    16    1
    12    23    11    1
    13     6     4    1
    14     6     9    1
    15     2     3    1
    16     3     4    1
    17     3    10    1
    18    11    10    1
    19    20     9    1
    20     5     4    1
    21     4    14    1
    22    10    22    1
    23    10    21    1
    24    23    24    2
    25    23    25    2
    26    26    23    2
    27     5    27    1
