@<TRIPOS>MOLECULE
*****
 13 12 0 0 0
SMALL
GASTEIGER

@<TRIPOS>ATOM
      1 O           2.9202    0.5373    0.2638 O.co2   1  UNL1       -0.2434
      2 C           1.7889    0.7276   -0.3033 C.2     1  UNL1        0.3845
      3 O           1.4706    1.6206   -1.1357 O.co2   1  UNL1       -0.2434
      4 C           0.7059   -0.3256    0.1370 C.3     1  UNL1        0.1659
      5 H           0.7651   -1.1328   -0.6003 H       1  UNL1        0.0717
      6 O           1.1563   -0.8994    1.4066 O.3     1  UNL1       -0.3799
      7 C          -0.7163    0.1951    0.2960 C.3     1  UNL1        0.0857
      8 H          -0.8878    0.4806    1.3419 H       1  UNL1        0.0410
      9 H          -0.8556    1.0997   -0.3083 H       1  UNL1        0.0410
     10 C          -1.8662   -0.7310   -0.1111 C.2     1  UNL1        0.3590
     11 O          -1.5886   -1.8141   -0.6989 O.co2   1  UNL1       -0.2463
     12 O          -3.0231   -0.2866    0.1800 O.co2   1  UNL1       -0.2463
     13 H           2.1074   -0.6346    1.4020 H       1  UNL1        0.2105
@<TRIPOS>BOND
     1     1     2   ar
     2     2     3   ar
     3     2     4    1
     4     4     5    1
     5     4     6    1
     6     4     7    1
     7     7     8    1
     8     7     9    1
     9     7    10    1
    10    10    11   ar
    11    10    12   ar
    12     6    13    1
