@<TRIPOS>MOLECULE
*****
 69 73 0 0 0
SMALL
GASTEIGER

@<TRIPOS>ATOM
      1 OXT        -3.3489    2.0527    0.4343 O.2     1  A1         -0.2549
      2 P          -2.8167    2.2292    1.8425 P.3     1  A1          0.3860
      3 O1P        -3.9794    1.8833    2.8708 O.co2   1  A1         -0.5659
      4 O2P        -2.0802    3.4882    2.2028 O.2     1  A1         -0.2549
      5 O5'        -1.8118    0.9883    2.1328 O.3     1  A1         -0.3029
      6 C5'        -1.8647   -0.0757    1.2043 C.3     1  A1          0.0858
      7 C4'        -1.0422   -1.2482    1.7137 C.3     1  A1          0.1133
      8 O4'         0.3605   -0.9092    1.6559 O.3     1  A1         -0.3456
      9 C3'        -1.3616   -1.6165    3.1595 C.3     1  A1          0.1135
     10 O3'        -1.1406   -3.0303    3.3701 O.3     1  A1         -0.3864
     11 C2'        -0.3280   -0.8501    3.9727 C.3     1  A1          0.1285
     12 O2'        -0.0042   -1.5633    5.1758 O.3     1  A1         -0.3847
     13 C1'         0.8570   -0.7793    3.0034 C.3     1  A1          0.1667
     14 N9          1.6872    0.4073    3.0792 N.ar    1  A1         -0.2855
     15 C8          1.2920    1.7083    3.2674 C.ar    1  A1          0.1004
     16 N7          2.3200    2.5347    3.3298 N.ar    1  A1         -0.2306
     17 C5          3.4193    1.7417    3.1107 C.ar    1  A1          0.1473
     18 C6          4.7868    2.0449    3.0081 C.ar    1  A1          0.1472
     19 N6          5.2855    3.3384    3.1567 N.pl3   1  A1         -0.3413
     20 N1          5.6525    1.0496    2.7106 N.ar    1  A1         -0.2188
     21 C2          5.1528   -0.1989    2.5718 C.ar    1  A1          0.1205
     22 N3          3.8753   -0.6157    2.6773 N.ar    1  A1         -0.2159
     23 C4          3.0536    0.4176    2.9382 C.ar    1  A1          0.1674
     24 H1'         1.5156   -1.6384    3.1824 H       1  A1          0.0866
     25 H2'        -0.7055    0.1351    4.2564 H       1  A1          0.0665
     26 H3'        -2.3907   -1.4032    3.4651 H       1  A1          0.0647
     27 H4'        -1.1857   -2.0994    1.0389 H       1  A1          0.0647
     28 H5'1       -2.9044   -0.3915    1.0677 H       1  A1          0.0592
     29 H5'2       -1.4580    0.2752    0.2491 H       1  A1          0.0592
     30 H2          5.8804   -0.9709    2.3399 H       1  A1          0.1048
     31 H8          0.2527    2.0112    3.3531 H       1  A1          0.1030
     32 H61         6.1258    3.4691    2.6123 H       1  A1          0.1438
     33 H62         4.5461    4.0285    3.0487 H       1  A1          0.1438
     34 HO2'       -0.2485   -2.4932    4.9828 H       1  A1          0.2101
     35 HCAP       -1.8810   -3.4840    2.9261 H       1  A1          0.2100
     36 P          -5.2996    2.6169    3.4013 P.3     1  UNL1        0.2607
     37 O          -6.1845    1.5575    4.0301 O.2     1  UNL1       -0.2871
     38 O          -4.9720    3.8694    4.1800 O.2     1  UNL1       -0.2871
     39 C          -6.1968    3.1583    1.8993 C.3     1  UNL1        0.0566
     40 H          -6.1341    2.3962    1.1177 H       1  UNL1        0.0391
     41 C          -5.8215    4.5518    1.4180 C.3     1  UNL1        0.0984
     42 H          -7.2533    3.1867    2.1983 H       1  UNL1        0.0391
     43 C          -4.6510    4.6132    0.4457 C.3     1  UNL1        0.1119
     44 H          -3.6633    4.5704    0.8894 H       1  UNL1        0.0647
     45 C          -4.8781    5.9438   -0.2078 C.3     1  UNL1        0.1284
     46 O          -4.7679    3.6754   -0.6377 O.3     1  UNL1       -0.3865
     47 H          -4.6283    6.7594    0.4805 H       1  UNL1        0.0665
     48 C          -6.3751    5.8213   -0.4571 C.3     1  UNL1        0.1639
     49 O          -4.1311    6.0906   -1.4219 O.3     1  UNL1       -0.3847
     50 O          -6.9427    5.1944    0.7048 O.3     1  UNL1       -0.3475
     51 H          -6.6010    5.2030   -1.3373 H       1  UNL1        0.0865
     52 N          -7.0378    7.1258   -0.7546 N.ar    1  UNL1       -0.3248
     53 H          -5.6300    5.2148    2.2684 H       1  UNL1        0.0629
     54 H          -3.7862    5.1820   -1.6016 H       1  UNL1        0.2101
     55 H          -4.2390    2.8805   -0.3241 H       1  UNL1        0.2100
     56 C          -8.3940    7.1650   -0.7442 C.ar    1  UNL1        0.0192
     57 C          -9.0793    8.3088   -1.1673 C.ar    1  UNL1        0.0527
     58 H          -8.9089    6.2602   -0.4262 H       1  UNL1        0.0817
     59 C          -8.3520    9.4260   -1.5744 C.ar    1  UNL1       -0.0469
     60 C         -10.5581    8.2382   -1.2055 C.2     1  UNL1        0.2429
     61 C          -6.9655    9.3704   -1.5672 C.ar    1  UNL1       -0.0447
     62 H          -8.8294   10.3381   -1.9160 H       1  UNL1        0.0626
     63 C          -6.3285    8.2035   -1.1667 C.ar    1  UNL1        0.0071
     64 H          -6.3726   10.2218   -1.8949 H       1  UNL1        0.0632
     65 H          -5.2449    8.1475   -1.2032 H       1  UNL1        0.0810
     66 O         -11.1334    7.2062   -0.8935 O.2     1  UNL1       -0.2704
     67 N         -11.2638    9.3325   -1.6168 N.am    1  UNL1       -0.3253
     68 H         -10.8836   10.2270   -1.8820 H       1  UNL1        0.1453
     69 H         -12.2735    9.2399   -1.6274 H       1  UNL1        0.1453
@<TRIPOS>BOND
     1     1     2    2
     2     4     2    2
     3    33    19    1
     4     2     3    1
     5     2     5    1
     6    32    19    1
     7    19    18    1
     8    16    15   ar
     9    16    17   ar
    10    31    15    1
    11     5     6    1
    12    15    14   ar
    13    18    17   ar
    14    18    20   ar
    15    17    23   ar
    16    25    11    1
    17    28     6    1
    18     6    29    1
    19     6     7    1
    20    26     9    1
    21    14    23   ar
    22    14    13    1
    23    20    21   ar
    24    11    12    1
    25    11     9    1
    26    11    13    1
    27    23    22   ar
    28    12    34    1
    29     9     7    1
    30     9    10    1
    31     7     8    1
    32     7    27    1
    33    13     8    1
    34    13    24    1
    35    21    22   ar
    36    21    30    1
    37    10    35    1
    38    36     3    1
    39    36    37    2
    40    36    38    2
    41    39    36    1
    42    39    40    1
    43    39    41    1
    44    39    42    1
    45    41    43    1
    46    43    44    1
    47    43    45    1
    48    43    46    1
    49    45    47    1
    50    45    48    1
    51    45    49    1
    52    48    50    1
    53    48    51    1
    54    48    52    1
    55    50    41    1
    56    41    53    1
    57    49    54    1
    58    46    55    1
    59    52    56   ar
    60    56    57   ar
    61    56    58    1
    62    57    59   ar
    63    57    60    1
    64    59    61   ar
    65    59    62    1
    66    61    63   ar
    67    63    52   ar
    68    61    64    1
    69    63    65    1
    70    60    66    2
    71    60    67   am
    72    67    68    1
    73    67    69    1
