@<TRIPOS>MOLECULE
*****
 36 37 0 0 0
SMALL
GASTEIGER

@<TRIPOS>ATOM
      1 OXT        -1.7765    9.5478    0.1773 O.2     1  UTP1       -0.5170
      2 P1         -0.2749    9.3244    0.0834 P.3     1  UTP1        0.2224
      3 O1P         0.5770   10.6550   -0.1300 O.co2   1  UTP1       -0.2261
      4 O2P         0.1500    8.2619   -0.9277 O.3     1  UTP1       -0.4370
      5 O5'         0.2217    8.7431    1.5160 O.3     1  UTP1       -0.3245
      6 C5'        -0.1470    9.4437    2.6864 C.3     1  UTP1        0.0836
      7 C4'         0.0525    8.5390    3.8999 C.3     1  UTP1        0.1133
      8 O4'        -1.1096    7.6946    4.1079 O.3     1  UTP1       -0.3456
      9 C3'         1.2593    7.6079    3.7647 C.3     1  UTP1        0.1135
     10 O3'         1.8161    7.3099    5.0759 O.3     1  UTP1       -0.3864
     11 C2'         0.6670    6.3207    3.2025 C.3     1  UTP1        0.1286
     12 O2'         1.4269    5.1763    3.6460 O.3     1  UTP1       -0.3847
     13 C1'        -0.7509    6.3391    3.7986 C.3     1  UTP1        0.1679
     14 N1         -1.8028    5.7454    2.9650 N.ar    1  UTP1       -0.2715
     15 C2         -2.5354    4.6813    3.4584 C.ar    1  UTP1        0.3314
     16 O2         -2.3702    4.1326    4.5488 O.2     1  UTP1       -0.2464
     17 N3         -3.5348    4.2175    2.6362 N.ar    1  UTP1       -0.2749
     18 C4         -3.8688    4.7100    1.4065 C.ar    1  UTP1        0.2539
     19 O4         -4.7817    4.2285    0.7406 O.2     1  UTP1       -0.2677
     20 C5         -3.0689    5.8449    0.9408 C.ar    1  UTP1        0.0192
     21 C6         -2.0974    6.3024    1.7321 C.ar    1  UTP1        0.0171
     22 H1'        -0.7280    5.8106    4.7590 H       1  UTP1        0.0867
     23 H2'         0.6596    6.3197    2.1093 H       1  UTP1        0.0665
     24 H3'         2.0827    8.0029    3.1618 H       1  UTP1        0.0647
     25 H4'         0.1246    9.1647    4.7967 H       1  UTP1        0.0647
     26 H5'1        0.5141   10.2923    2.8259 H       1  UTP1        0.0591
     27 H5'2       -1.1833    9.7880    2.6281 H       1  UTP1        0.0591
     28 H3         -4.0796    3.4512    2.9859 H       1  UTP1        0.1734
     29 H5         -3.2832    6.3019   -0.0169 H       1  UTP1        0.0686
     30 H6         -1.5127    7.1563    1.4078 H       1  UTP1        0.0813
     31 HO2'        1.8787    5.5115    4.4488 H       1  UTP1        0.2101
     32 HCAP        2.2117    8.1606    5.3501 H       1  UTP1        0.2100
     33 P2          1.2430   11.8113    0.7776 P.3     1  UTP1        0.5373
     34 O1          0.1395   12.3782    1.6654 O.2     1  UTP1       -0.2221
     35 O3          1.7758   12.8354   -0.2260 O.3     1  UTP1       -0.1143
     36 O5          2.3636   11.1395    1.5740 O.3     1  UTP1       -0.1143
@<TRIPOS>BOND
     1     1     2    2
     2     2     4    1
     3     2     3    1
     4     2     5    1
     5     3    33    1
     6     5     6    1
     7     6    26    1
     8     6    27    1
     9     6     7    1
    10     7     9    1
    11     7     8    1
    12     7    25    1
    13     8    13    1
    14     9    24    1
    15     9    11    1
    16     9    10    1
    17    10    32    1
    18    11    23    1
    19    11    12    1
    20    11    13    1
    21    12    31    1
    22    13    14    1
    23    13    22    1
    24    14    21   ar
    25    14    15   ar
    26    15    17   ar
    27    15    16    2
    28    17    18   ar
    29    17    28    1
    30    18    19    2
    31    18    20   ar
    32    20    29    1
    33    20    21   ar
    34    21    30    1
    35    33    34    2
    36    33    35    1
    37    33    36    1
