@<TRIPOS>MOLECULE
*****
 64 66 0 0 0
SMALL
GASTEIGER

@<TRIPOS>ATOM
      1 C           0.2770    2.2192    0.9733 C.ar    1  UNL1        0.0192
      2 C          -0.5357    1.2691    0.5106 C.ar    1  UNL1        0.0171
      3 N          -0.1950    0.4680   -0.5611 N.ar    1  UNL1       -0.2715
      4 C           1.0189    0.6304   -1.2203 C.ar    1  UNL1        0.3314
      5 N           1.9138    1.4743   -0.6149 N.ar    1  UNL1       -0.2749
      6 C           1.6219    2.3532    0.3878 C.ar    1  UNL1        0.2539
      7 O           1.2850    0.1523   -2.3236 O.2     1  UNL1       -0.2464
      8 O           2.3823    3.2321    0.7588 O.2     1  UNL1       -0.2677
      9 H          -1.4933    1.0912    0.9828 H       1  UNL1        0.0813
     10 C          -0.9485   -0.7289   -0.8996 C.3     1  UNL1        0.1679
     11 H           2.8208    1.5301   -1.0433 H       1  UNL1        0.1734
     12 H           0.0244    2.8616    1.8036 H       1  UNL1        0.0686
     13 C          -2.2837   -0.5723   -1.6313 C.3     1  UNL1        0.1286
     14 O          -3.2136    0.2929   -0.9211 O.3     1  UNL1       -0.3847
     15 C          -2.8285   -2.0091   -1.4948 C.3     1  UNL1        0.1136
     16 H          -2.2101   -0.2203   -2.6625 H       1  UNL1        0.0665
     17 C          -2.2306   -2.4843   -0.1491 C.3     1  UNL1        0.1134
     18 H          -2.5028   -2.6376   -2.3295 H       1  UNL1        0.0647
     19 O          -4.2625   -2.0027   -1.4785 O.3     1  UNL1       -0.3864
     20 O          -1.4079   -1.3818    0.2990 O.3     1  UNL1       -0.3456
     21 C          -1.4087   -3.7776   -0.2955 C.3     1  UNL1        0.0889
     22 H          -2.9991   -2.6311    0.6176 H       1  UNL1        0.0647
     23 H          -0.3098   -1.4122   -1.4666 H       1  UNL1        0.0867
     24 H          -3.0653    0.0725    0.0226 H       1  UNL1        0.2101
     25 H          -4.5120   -1.0910   -1.2232 H       1  UNL1        0.2100
     26 H          -0.8875   -3.8235   -1.2559 H       1  UNL1        0.0593
     27 H          -2.0929   -4.6337   -0.2944 H       1  UNL1        0.0593
     28 O          -0.5032   -3.9379    0.7848 O.3     1  UNL1       -0.2721
     29 P           1.0205   -3.3968    0.5779 P.3     1  UNL1        0.5764
     30 O           1.8599   -4.6391    1.1173 O.3     1  UNL1       -0.1622
     31 O           1.2307   -2.2626    1.5634 O.2     1  UNL1       -0.2123
     32 P           1.9708   -6.1597    0.6646 P.3     1  UNL1        0.5786
     33 O           2.5827   -6.7512    2.0526 O.3     1  UNL1       -0.2428
     34 O           3.0892   -6.3698   -0.3301 O.2     1  UNL1       -0.2123
     35 C           1.8365   -6.5775    3.2375 C.3     1  UNL1        0.1923
     36 O           1.2767   -3.1373   -0.8868 O.2     1  UNL1       -0.2123
     37 O           0.6318   -6.8368    0.4874 O.2     1  UNL1       -0.2123
     38 C           2.7961   -6.8108    4.4212 C.3     1  UNL1        0.1028
     39 O           0.7598   -7.5037    3.3934 O.3     1  UNL1       -0.3406
     40 H           1.4244   -5.5654    3.2996 H       1  UNL1        0.0935
     41 C           3.3792   -8.2440    4.3055 C.3     1  UNL1        0.1065
     42 H           2.2336   -6.7446    5.3621 H       1  UNL1        0.0575
     43 N           3.8660   -5.8043    4.4876 N.am    1  UNL1       -0.3053
     44 C           1.1667   -8.8499    3.1356 C.3     1  UNL1        0.1130
     45 C           2.2706   -9.3011    4.1033 C.3     1  UNL1        0.1112
     46 O           4.1371   -8.6211    5.4781 O.3     1  UNL1       -0.3871
     47 H           4.0947   -8.2905    3.4751 H       1  UNL1        0.0640
     48 H           1.8310   -9.5121    5.0858 H       1  UNL1        0.0646
     49 O           2.8387  -10.5427    3.6470 O.3     1  UNL1       -0.3865
     50 H           1.4943   -8.9420    2.0925 H       1  UNL1        0.0647
     51 C          -0.0880   -9.7171    3.3002 C.3     1  UNL1        0.0730
     52 H          -0.4903   -9.6186    4.3146 H       1  UNL1        0.0584
     53 H           0.1270  -10.7732    3.1124 H       1  UNL1        0.0584
     54 O          -1.1240   -9.3096    2.4025 O.3     1  UNL1       -0.3924
     55 H          -0.8471   -8.4341    2.0396 H       1  UNL1        0.2095
     56 H           3.3493  -10.3306    2.8425 H       1  UNL1        0.2100
     57 H           4.1412   -7.8542    6.0885 H       1  UNL1        0.2100
     58 H           4.1534   -5.3928    3.6011 H       1  UNL1        0.1492
     59 C           4.5889   -5.5792    5.6277 C.2     1  UNL1        0.2104
     60 O           4.3449   -6.1427    6.6936 O.2     1  UNL1       -0.2761
     61 C           5.7246   -4.6108    5.4745 C.3     1  UNL1        0.0122
     62 H           5.3487   -3.5876    5.5240 H       1  UNL1        0.0322
     63 H           6.2445   -4.7773    4.5276 H       1  UNL1        0.0322
     64 H           6.4412   -4.7730    6.2877 H       1  UNL1        0.0322
@<TRIPOS>BOND
     1     1     2   ar
     2     6     1   ar
     3     1    12    1
     4     2     3   ar
     5     2     9    1
     6     3     4   ar
     7     3    10    1
     8     4     5   ar
     9     4     7    2
    10     5     6   ar
    11     5    11    1
    12     6     8    2
    13    10    13    1
    14    13    14    1
    15    13    15    1
    16    13    16    1
    17    15    17    1
    18    15    18    1
    19    15    19    1
    20    17    20    1
    21    17    21    1
    22    17    22    1
    23    20    10    1
    24    10    23    1
    25    14    24    1
    26    19    25    1
    27    21    26    1
    28    21    27    1
    29    21    28    1
    30    28    29    1
    31    29    30    1
    32    29    31    2
    33    30    32    1
    34    32    33    1
    35    32    34    2
    36    33    35    1
    37    36    29    2
    38    37    32    2
    39    35    38    1
    40    35    39    1
    41    35    40    1
    42    38    41    1
    43    38    42    1
    44    38    43    1
    45    39    44    1
    46    41    45    1
    47    41    46    1
    48    41    47    1
    49    45    44    1
    50    45    48    1
    51    45    49    1
    52    44    50    1
    53    44    51    1
    54    51    52    1
    55    51    53    1
    56    51    54    1
    57    54    55    1
    58    49    56    1
    59    46    57    1
    60    43    58    1
    61    43    59   am
    62    59    60    2
    63    59    61    1
    64    61    62    1
    65    61    63    1
    66    61    64    1
