@<TRIPOS>MOLECULE
*****
 58 60 0 0 0
SMALL
GASTEIGER

@<TRIPOS>ATOM
      1 OXT        -1.3445   10.2252   -0.4534 O.3     1  U1         -0.2176
      2 P          -0.0811    9.3475   -0.0240 P.3     1  U1          0.2234
      3 O1P         1.0936   10.2266    0.3504 O.co2   1  U1         -0.4370
      4 O2P         0.1394    8.2592   -1.0537 O.2     1  U1         -0.5169
      5 O5'        -0.5813    8.6041    1.3184 O.3     1  U1         -0.3245
      6 C5'        -0.6392    9.3040    2.5426 C.3     1  U1          0.0836
      7 C4'        -0.1370    8.3884    3.6617 C.3     1  U1          0.1133
      8 O4'        -1.1760    7.4395    4.0071 O.3     1  U1         -0.3456
      9 C3'         1.0991    7.5727    3.2803 C.3     1  U1          0.1135
     10 O3'         1.9001    7.2869    4.4572 O.3     1  U1         -0.3864
     11 C2'         0.5359    6.2508    2.7730 C.3     1  U1          0.1286
     12 O2'         1.4448    5.1713    3.0735 O.3     1  U1         -0.3847
     13 C1'        -0.7808    6.1319    3.5628 C.3     1  U1          0.1679
     14 N1         -1.9128    5.4964    2.8788 N.ar    1  U1         -0.2715
     15 C2         -2.6864    4.5929    3.5921 C.ar    1  U1          0.3314
     16 O2         -2.4476    4.1856    4.7298 O.2     1  U1         -0.2464
     17 N3         -3.7937    4.1091    2.9385 N.ar    1  U1         -0.2749
     18 C4         -4.1751    4.4059    1.6622 C.ar    1  U1          0.2539
     19 O4         -5.1265    3.8537    1.1169 O.2     1  U1         -0.2677
     20 C5         -3.3589    5.4100    0.9780 C.ar    1  U1          0.0192
     21 C6         -2.2921    5.9026    1.6098 C.ar    1  U1          0.0171
     22 H1'        -0.5713    5.5630    4.4766 H       1  U1          0.0867
     23 H2'         0.3900    6.2692    1.6913 H       1  U1          0.0665
     24 H3'         1.7516    8.0703    2.5555 H       1  U1          0.0647
     25 H4'         0.0371    8.9904    4.5603 H       1  U1          0.0647
     26 H5'1       -0.0299   10.2113    2.5074 H       1  U1          0.0591
     27 H5'2       -1.6775    9.5816    2.7390 H       1  U1          0.0591
     28 H3         -4.3521    3.4420    3.4394 H       1  U1          0.1734
     29 H5         -3.6492    5.7495   -0.0073 H       1  U1          0.0686
     30 H6         -1.7040    6.6636    1.1104 H       1  U1          0.0813
     31 HO2'        1.8132    5.4185    3.9463 H       1  U1          0.2101
     32 HCAP        2.7743    7.6728    4.2627 H       1  U1          0.2100
     33 P          -2.7585   10.4612    0.2445 P.3     1  UNL1        0.5748
     34 O          -3.5198   11.1640   -1.0127 O.3     1  UNL1       -0.2421
     35 C          -4.8818   11.4573   -0.7772 C.3     1  UNL1        0.1999
     36 O          -2.6571   11.5272    1.3184 O.2     1  UNL1       -0.2124
     37 O          -3.4962    9.1658    0.4809 O.2     1  UNL1       -0.2124
     38 C          -5.5211   11.8754   -2.1095 C.3     1  UNL1        0.1347
     39 O          -5.0901   12.5126    0.1589 O.3     1  UNL1       -0.3400
     40 H          -5.3930   10.5600   -0.4131 H       1  UNL1        0.0943
     41 C          -4.3507   13.6879   -0.2019 C.3     1  UNL1        0.1130
     42 C          -4.3549   14.6013    1.0234 C.3     1  UNL1        0.0730
     43 C          -4.9959   14.2955   -1.4565 C.3     1  UNL1        0.1119
     44 H          -3.3004   13.4451   -0.4065 H       1  UNL1        0.0647
     45 H          -5.3781   14.7857    1.3666 H       1  UNL1        0.0584
     46 H          -3.8829   15.5632    0.8056 H       1  UNL1        0.0584
     47 O          -3.6422   14.0235    2.1205 O.3     1  UNL1       -0.3924
     48 H          -6.0363   14.5820   -1.2581 H       1  UNL1        0.0647
     49 C          -4.9819   13.2378   -2.5809 C.3     1  UNL1        0.1141
     50 O          -4.3071   15.4728   -1.8997 O.3     1  UNL1       -0.3865
     51 H          -6.6077   11.9582   -1.9826 H       1  UNL1        0.0671
     52 O          -5.2989   10.9104   -3.1557 O.3     1  UNL1       -0.3841
     53 H          -3.9663   13.1327   -2.9825 H       1  UNL1        0.0648
     54 O          -5.7939   13.6738   -3.6953 O.3     1  UNL1       -0.3864
     55 H          -3.3577   13.0999    1.8608 H       1  UNL1        0.2095
     56 H          -4.4540   10.4689   -2.9131 H       1  UNL1        0.2101
     57 H          -5.8127   12.8960   -4.2874 H       1  UNL1        0.2100
     58 H          -4.4437   16.1639   -1.2330 H       1  UNL1        0.2100
@<TRIPOS>BOND
     1     1     2    1
     2     4     2    2
     3    29    20    1
     4     2     3    1
     5     2     5    1
     6    19    18    2
     7    20    18   ar
     8    20    21   ar
     9    30    21    1
    10    18    17   ar
    11     5     6    1
    12    21    14   ar
    13    23    11    1
    14    26     6    1
    15     6    27    1
    16     6     7    1
    17    17    28    1
    18    17    15   ar
    19    24     9    1
    20    14    15   ar
    21    14    13    1
    22    11    12    1
    23    11     9    1
    24    11    13    1
    25    12    31    1
    26    15    16    2
    27     9     7    1
    28     9    10    1
    29     7     8    1
    30     7    25    1
    31    13     8    1
    32    13    22    1
    33    10    32    1
    34    33     1    1
    35    34    33    1
    36    34    35    1
    37    33    36    2
    38    33    37    2
    39    35    38    1
    40    35    39    1
    41    35    40    1
    42    39    41    1
    43    41    42    1
    44    41    43    1
    45    41    44    1
    46    42    45    1
    47    42    46    1
    48    42    47    1
    49    43    48    1
    50    43    49    1
    51    43    50    1
    52    38    49    1
    53    38    51    1
    54    38    52    1
    55    49    53    1
    56    49    54    1
    57    47    55    1
    58    52    56    1
    59    54    57    1
    60    50    58    1
