@<TRIPOS>MOLECULE
*****
 29 30 0 0 0
SMALL
GASTEIGER

@<TRIPOS>ATOM
      1 O5'        -0.3110    8.5326    1.3442 O.3     1  U1         -0.3924
      2 C5'        -0.2863    9.2708    2.5645 C.3     1  U1          0.0730
      3 C4'         0.0163    8.3647    3.7598 C.3     1  U1          0.1126
      4 O4'        -1.1100    7.4810    3.9204 O.3     1  U1         -0.3456
      5 C3'         1.2636    7.4998    3.5964 C.3     1  U1          0.1135
      6 O3'         1.8891    7.2829    4.8721 O.3     1  U1         -0.3864
      7 C2'         0.7347    6.1755    3.0721 C.3     1  U1          0.1286
      8 O2'         1.5523    5.0805    3.5082 O.3     1  U1         -0.3847
      9 C1'        -0.7048    6.1337    3.6292 C.3     1  U1          0.1679
     10 N1         -1.7540    5.5346    2.7969 N.ar    1  U1         -0.2715
     11 C2         -2.8508    4.9963    3.4694 C.ar    1  U1          0.3314
     12 O2         -2.9389    4.8803    4.6900 O.2     1  U1         -0.2464
     13 N3         -3.8883    4.5741    2.6759 N.ar    1  U1         -0.2749
     14 C4         -3.9524    4.6568    1.3180 C.ar    1  U1          0.2539
     15 O4         -4.9233    4.2945    0.6642 O.2     1  U1         -0.2677
     16 C5         -2.7733    5.2323    0.6630 C.ar    1  U1          0.0192
     17 C6         -1.7574    5.6526    1.4185 C.ar    1  U1          0.0171
     18 H1'        -0.6853    5.6013    4.5883 H       1  U1          0.0867
     19 H2'         0.7813    6.1842    1.9837 H       1  U1          0.0665
     20 H3'         2.0160    7.9549    2.9440 H       1  U1          0.0647
     21 H4'         0.0756    8.9811    4.6638 H       1  U1          0.0647
     22 H5'1        0.4692   10.0550    2.4670 H       1  U1          0.0584
     23 H5'2       -1.2675    9.7421    2.6964 H       1  U1          0.0584
     24 H3         -4.6946    4.2045    3.1535 H       1  U1          0.1734
     25 H5         -2.7840    5.3173   -0.4151 H       1  U1          0.0686
     26 H6         -0.9052    6.1101    0.9327 H       1  U1          0.0813
     27 HO2'        1.4601    5.0313    4.4795 H       1  U1          0.2101
     28 HCAP        2.7144    6.7962    4.6811 H       1  U1          0.2100
     29 H5*        -1.1555    8.7529    0.9087 H       1    U1        0.2095
@<TRIPOS>BOND
     1    25    16    1
     2    15    14    2
     3    16    14   ar
     4    16    17   ar
     5    26    17    1
     6    14    13   ar
     7     1     2    1
     8    17    10   ar
     9    19     7    1
    10    22     2    1
    11     2    23    1
    12     2     3    1
    13    13    24    1
    14    13    11   ar
    15    20     5    1
    16    10    11   ar
    17    10     9    1
    18     7     8    1
    19     7     5    1
    20     7     9    1
    21     8    27    1
    22    11    12    2
    23     5     3    1
    24     5     6    1
    25     3     4    1
    26     3    21    1
    27     9     4    1
    28     9    18    1
    29     6    28    1
    30    29     1    1
