@<TRIPOS>MOLECULE
*****
 40 41 0 0 0
SMALL
GASTEIGER

@<TRIPOS>ATOM
      1 OXT        -1.7924    9.6912    0.3937 O.2     1  U1         -0.2548
      2 P          -0.3293    9.3924    0.1690 P.3     1  U1          0.3873
      3 O1P         0.5773   10.6548   -0.1302 O.co2   1  U1         -0.5452
      4 O2P         0.0013    8.2815   -0.8142 O.2     1  U1         -0.2548
      5 O5'         0.3017    8.8727    1.5659 O.3     1  U1         -0.3029
      6 C5'        -0.0198    9.5554    2.7552 C.3     1  U1          0.0858
      7 C4'         0.1335    8.5688    3.9154 C.3     1  U1          0.1133
      8 O4'        -1.0549    7.7455    4.0366 O.3     1  U1         -0.3456
      9 C3'         1.3168    7.6092    3.7430 C.3     1  U1          0.1135
     10 O3'         1.8564    7.2318    5.0369 O.3     1  U1         -0.3864
     11 C2'         0.6998    6.3650    3.1124 C.3     1  U1          0.1286
     12 O2'         1.4403    5.1870    3.4864 O.3     1  U1         -0.3847
     13 C1'        -0.7155    6.3853    3.7137 C.3     1  U1          0.1679
     14 N1         -1.7804    5.8059    2.8875 N.ar    1  U1         -0.2715
     15 C2         -2.6092    4.8447    3.4412 C.ar    1  U1          0.3314
     16 O2         -2.5026    4.3670    4.5720 O.2     1  U1         -0.2464
     17 N3         -3.6247    4.3961    2.6316 N.ar    1  U1         -0.2749
     18 C4         -3.8745    4.7916    1.3478 C.ar    1  U1          0.2539
     19 O4         -4.7757    4.2980    0.6785 O.2     1  U1         -0.2677
     20 C5         -2.9884    5.8359    0.8263 C.ar    1  U1          0.0192
     21 C6         -2.0086    6.2894    1.6103 C.ar    1  U1          0.0171
     22 H1'        -0.6864    5.8485    4.6693 H       1  U1          0.0867
     23 H2'         0.6958    6.4272    2.0214 H       1  U1          0.0665
     24 H3'         2.1532    8.0129    3.1641 H       1  U1          0.0647
     25 H4'         0.2037    9.1338    4.8511 H       1  U1          0.0647
     26 H5'1        0.6901   10.3779    2.8763 H       1  U1          0.0592
     27 H5'2       -1.0379    9.9541    2.7280 H       1  U1          0.0592
     28 H3         -4.2297    3.6955    3.0192 H       1  U1          0.1734
     29 H5         -3.1526    6.2291   -0.1688 H       1  U1          0.0686
     30 H6         -1.3607    7.0772    1.2418 H       1  U1          0.0813
     31 HO2'        1.8632    5.4427    4.3322 H       1  U1          0.2101
     32 HCAP        2.2608    8.0491    5.3838 H       1  U1          0.2100
     33 P           0.9127   12.0946    0.4717 P.3     1  UNL1        0.3970
     34 O          -0.2195   12.6551    1.2984 O.2     1  UNL1       -0.2543
     35 O           0.9699   12.8651   -1.0241 O.3     1  UNL1       -0.1816
     36 O           2.3222   12.1117    1.0479 O.2     1  UNL1       -0.2543
     37 P           2.3164   15.2419    0.0499 P.3     1  UNL1        0.6671
     38 O           2.9495   16.3594    0.5548 O.2     1  UNL1       -0.2005
     39 O           2.1333   15.6868   -1.4256 O.2     1  UNL1       -0.2005
     40 O           3.5703   14.1664    0.0806 O.2     1  UNL1       -0.2005
@<TRIPOS>BOND
     1     1     2    2
     2     4     2    2
     3    29    20    1
     4     2     3    1
     5     2     5    1
     6    19    18    2
     7    20    18   ar
     8    20    21   ar
     9    30    21    1
    10    18    17   ar
    11     5     6    1
    12    21    14   ar
    13    23    11    1
    14    26     6    1
    15     6    27    1
    16     6     7    1
    17    17    28    1
    18    17    15   ar
    19    24     9    1
    20    14    15   ar
    21    14    13    1
    22    11    12    1
    23    11     9    1
    24    11    13    1
    25    12    31    1
    26    15    16    2
    27     9     7    1
    28     9    10    1
    29     7     8    1
    30     7    25    1
    31    13     8    1
    32    13    22    1
    33    10    32    1
    34    33     3    1
    35    33    34    2
    36    33    35    1
    37    33    36    2
    38    37    35    1
    39    37    38    2
    40    37    39    2
    41    37    40    2
