@<TRIPOS>MOLECULE
*****
 19 18 0 0 0
SMALL
GASTEIGER

@<TRIPOS>ATOM
      1 HA          1.3980    0.0674   -0.8341 H       1  VAL1        0.0201
      2 CA          0.4987   -0.4786   -0.5241 C.3     1  VAL1        0.0229
      3 N           1.0291   -1.7236    0.1945 N.4     1  VAL1        0.3872
      4 H1          0.3847   -2.0801    0.9013 H       1  VAL1       -0.0889
      5 H2          0.9501   -2.4287   -0.5875 H       1  VAL1       -0.0889
      6 CB         -0.3293    0.3544    0.4701 C.3     1  VAL1       -0.0496
      7 HB         -1.2282   -0.2125    0.7459 H       1  VAL1        0.0285
      8 CG1        -0.7919    1.6844   -0.1364 C.3     1  VAL1       -0.0637
      9 HG11        0.0514    2.2467   -0.5512 H       1  VAL1        0.0232
     10 HG12       -1.2755    2.3122    0.6204 H       1  VAL1        0.0232
     11 HG13       -1.5286    1.5310   -0.9291 H       1  VAL1        0.0232
     12 CG2         0.4526    0.6600    1.7567 C.3     1  VAL1       -0.0637
     13 HG21        1.3869    1.1869    1.5343 H       1  VAL1        0.0232
     14 HG22        0.6981   -0.2518    2.3096 H       1  VAL1        0.0232
     15 HG23       -0.1378    1.2906    2.4307 H       1  VAL1        0.0232
     16 C          -0.2017   -0.9872   -1.8328 C.2     1  VAL1        0.3423
     17 O          -0.7913   -0.1632   -2.5570 O.co2   1  VAL1       -0.2482
     18 OXT         0.0024   -2.2453   -1.9442 O.co2   1  VAL1       -0.2482
     19 H3          2.0012   -1.6726    0.4911 H       1  VAL1       -0.0889
@<TRIPOS>BOND
     1     1     2    1
     2     2     3    1
     3     2     6    1
     4     2    16    1
     5     3     4    1
     6     3     5    1
     7     6     7    1
     8     6     8    1
     9     6    12    1
    10     8     9    1
    11     8    10    1
    12     8    11    1
    13    12    13    1
    14    12    14    1
    15    12    15    1
    16    16    17   ar
    17    16    18   ar
    18    19     3    1
