@<TRIPOS>MOLECULE
*****
 43 45 0 0 0
SMALL
GASTEIGER

@<TRIPOS>ATOM
      1 OXT         2.9596    0.2913   -0.9311 O.3     1  A1         -0.2174
      2 P           3.7636   -0.8221   -0.1154 P.3     1  A1          0.2234
      3 O1P         5.0369   -0.3051    0.5418 O.co2   1  A1         -0.4370
      4 O2P         3.9400   -2.0932   -0.9362 O.2     1  A1         -0.5169
      5 O5'         2.7591   -1.2528    1.0846 O.3     1  A1         -0.3245
      6 C5'         2.7039   -0.4309    2.2319 C.3     1  A1          0.0836
      7 C4'         3.1370   -1.2554    3.4481 C.3     1  A1          0.1133
      8 O4'         2.0997   -2.2176    3.7765 O.3     1  A1         -0.3456
      9 C3'         4.4123   -2.0738    3.2345 C.3     1  A1          0.1135
     10 O3'         5.0816   -2.3354    4.5053 O.3     1  A1         -0.3864
     11 C2'         3.9238   -3.4150    2.7021 C.3     1  A1          0.1285
     12 O2'         4.7579   -4.4868    3.2124 O.3     1  A1         -0.3847
     13 C1'         2.5077   -3.5075    3.2842 C.3     1  A1          0.1667
     14 N9          1.4682   -4.0736    2.4449 N.ar    1  A1         -0.2855
     15 C8          1.3970   -4.1099    1.0737 C.ar    1  A1          0.1004
     16 N7          0.3813   -4.8385    0.6466 N.ar    1  A1         -0.2306
     17 C5         -0.2965   -5.1806    1.7856 C.ar    1  A1          0.1473
     18 C6         -1.5156   -5.8516    1.9683 C.ar    1  A1          0.1472
     19 N6         -2.3027   -6.2773    0.8888 N.pl3   1  A1         -0.3413
     20 N1         -1.9760   -6.0379    3.2272 N.ar    1  A1         -0.2188
     21 C2         -1.2066   -5.5810    4.2418 C.ar    1  A1          0.1205
     22 N3         -0.0139   -4.9563    4.1964 N.ar    1  A1         -0.2159
     23 C4          0.3681   -4.7514    2.9186 C.ar    1  A1          0.1674
     24 H1'         2.5477   -4.1596    4.1672 H       1  A1          0.0866
     25 H2'         3.9600   -3.4579    1.6132 H       1  A1          0.0665
     26 H3'         5.1499   -1.5944    2.5902 H       1  A1          0.0647
     27 H4'         3.2294   -0.5929    4.3159 H       1  A1          0.0647
     28 H5'1        3.3549    0.4429    2.1402 H       1  A1          0.0591
     29 H5'2        1.6727   -0.0877    2.3576 H       1  A1          0.0591
     30 H2         -1.6085   -5.7401    5.2377 H       1  A1          0.1048
     31 H8          2.1001   -3.5946    0.4233 H       1  A1          0.1030
     32 H61        -3.2731   -6.1061    1.1147 H       1  A1          0.1438
     33 H62        -1.9757   -5.7799    0.0554 H       1  A1          0.1438
     34 HO2'        5.0421   -4.1436    4.0843 H       1  A1          0.2101
     35 HCAP        5.9952   -2.0318    4.3420 H       1  A1          0.2100
     36 P           1.7238    1.2735   -0.5462 P.3     1  UNL1        0.5818
     37 O           1.6190    2.0851   -1.9306 O.3     1  UNL1       -0.1605
     38 O           2.2074    2.1324    0.6167 O.2     1  UNL1       -0.2121
     39 O           0.5239    0.3671   -0.3050 O.2     1  UNL1       -0.2121
     40 P           0.7739    3.2820   -2.6171 P.3     1  UNL1        0.6042
     41 O           1.0675    4.5746   -1.8552 O.2     1  UNL1       -0.2107
     42 O           1.3228    3.3562   -4.0527 O.2     1  UNL1       -0.2107
     43 O          -0.7059    2.9012   -2.6155 O.3     1  UNL1       -0.1032
@<TRIPOS>BOND
     1     1     2    1
     2     4     2    2
     3    33    19    1
     4     2     3    1
     5     2     5    1
     6    32    19    1
     7    19    18    1
     8    16    15   ar
     9    16    17   ar
    10    31    15    1
    11     5     6    1
    12    15    14   ar
    13    18    17   ar
    14    18    20   ar
    15    17    23   ar
    16    25    11    1
    17    28     6    1
    18     6    29    1
    19     6     7    1
    20    26     9    1
    21    14    23   ar
    22    14    13    1
    23    20    21   ar
    24    11    12    1
    25    11     9    1
    26    11    13    1
    27    23    22   ar
    28    12    34    1
    29     9     7    1
    30     9    10    1
    31     7     8    1
    32     7    27    1
    33    13     8    1
    34    13    24    1
    35    21    22   ar
    36    21    30    1
    37    10    35    1
    38    36     1    1
    39    37    36    1
    40    38    36    2
    41    39    36    2
    42    40    37    1
    43    40    41    2
    44    42    40    2
    45    43    40    1
